17
conformer 3; energy -430.071671891752
O -3.2541367290647627 -1.4666154077266063 2.24497244705809
O 3.555619053065542 1.0032288061177428 -1.950298626232085
O 0.1965755805236356 3.0466071676578057 -3.65184675807509
N 1.7365866071401408 2.3011013693962923 2.6120459682272505
C -0.8193824053833901 -1.2770808122585637 1.103680611482429
C -0.08378948484271137 1.5004257379381765 0.6829132574449314
C -0.8667836342605112 -2.8144173117237026 -1.3302270354764985
C 1.1645596544668124 1.935395120452953 -1.8673443344725427
H -1.7561988144129583 2.719690259878858 0.7705145466442637
H 0.526773816331457 -2.158704856311709 2.4103827109695204
H 0.9727634427253029 -2.851924115605935 -2.2719770433614026
H -1.4102763595134307 -4.77034577975458 -0.9182934487839194
H -2.283373695602007 -2.095055092140875 -2.656855472839919
H 2.321465499485762 4.0986246029763675 2.2399587728340857
H 0.8660234095638988 2.3669952928927502 4.329121496804638
H -4.48627714093527 -0.876335519508439 1.0161627160454447
H 3.619851200712491 -0.6615894622805367 -2.762909808269197
