17
conformer 0; energy -430.0664508166179
O 1.2438890729605216 -2.820750544879391 1.6434816807402082
O 2.545927610480706 2.085393207874076 3.0303742432901504
O 4.75016512619968 2.2536831680773934 -0.6391088801130904
N -1.5190657004742019 3.065425369461913 -0.4053576138789594
C -0.7184171577951035 -1.4399864848915014 0.414909352756233
C 0.31082208279034 1.0135452402126917 -0.7486551647470683
C -1.9408247369005511 -3.183723689779651 -1.5228570535721682
C 2.7608971699457308 1.8724299102390167 0.48054690798337085
H 0.6865529287218919 0.7612815181469557 -2.7701723088870978
H -2.1271647847255806 -0.9800484596598698 1.8643094646602125
H -0.810516025860536 -4.876996830580519 -1.8798123699373954
H -3.80241700168504 -3.7923623251642073 -0.8484616206505822
H -2.2738679733297587 -2.2104639580934817 -3.3189656905757943
H -1.6592375482568353 4.083518036057077 -2.0349364385604463
H -0.8699315086328256 4.287949664955507 0.9342882996879401
H 2.5257900864377367 -1.6115335212456383 2.164193202571755
H 0.897398360123826 1.4926396992696298 3.636223989232732
