17
conformer 1; energy -430.03697874553876
O -3.3982098169381603 0.02495770379760076 1.9522468901355226
O 3.8762119393519536 2.437280302061982 -1.5479154110797584
O 2.051464011201433 -0.9023243178485677 -3.5152390401455262
N 0.8363105021267938 2.3316507677818983 2.1779128428162364
C -1.5054564060814537 -1.3799336544223366 0.644432644450307
C 1.0990208372515953 -0.1275499760871711 0.92905293191789
C -2.340675070003779 -1.6391685092752053 -2.0987190141544594
C 2.370404331216151 0.35812192262739195 -1.6006049181869488
H 2.368876973231516 -1.3286344719545102 2.040829726796154
H -1.4617699744761852 -3.268353321091104 1.4981551778390403
H -1.0138336091487041 -0.7513031504723198 -3.4115156950158037
H -2.490471080766953 -3.6424798870819624 -2.603778945502169
H -4.222398503505878 -0.8316007645028051 -2.400497069247475
H 2.389819076728795 2.6714593158764224 3.2654551871468223
H 0.7986115946491287 3.726122885406335 0.8495436070855309
H -3.552872695531203 -0.6935603790461728 3.6364026139606054
H 4.194967890694949 3.015315534230525 0.18423847118403192
