17
conformer 2; energy -430.07047806085586
O -3.413518465720947 0.9982526050069411 1.1014382993993526
O 2.369258159840955 1.8292521888050397 -2.972006924020907
O 5.433222899420299 0.39384546158471695 -0.34730055979545826
N 0.9964888511242046 1.2484273253188822 3.127651839939286
C -1.547365417729091 -0.039288735007187214 -0.5439949152578002
C 1.017224449309686 -0.2557345716808944 0.8009142565905789
C -2.5332836991867085 -2.5661022031315084 -1.5098304948462158
C 3.188683339472025 0.7263654559706454 -0.8027981645499578
H 1.4334812962676033 -2.2311429057999783 1.265461732406492
H -1.3775131494737187 1.2569012875498575 -2.152694051129194
H -1.8110886347560764 -3.0241079205787327 -3.39156374860949
H -4.6014792938456415 -2.5219190973483476 -1.615875200744712
H -2.060409076999195 -4.111666045325636 -0.21685453962988277
H 1.022225245811522 0.07409529376048057 4.654705669666727
H 2.610454319605399 2.294846805378652 3.2308689158132546
H -2.608001040635204 2.3302148729671015 2.0779129996876726
H 1.8816202174948893 3.5977601825299668 -2.7060351149197466
