17
conformer 4; energy -430.02189825996334
O -0.4677200504835469 -3.8804889602941777 0.46114740677451416
O 2.940960453097334 0.5266006551755009 -3.339020485336157
O 5.26019697793821 2.555507712087018 -0.36258273505160576
N 0.3041101095858075 2.5069402599502895 2.117150854905984
C -0.5878161877761033 -1.3187019706461633 -0.3691270908845594
C 1.4567465388381464 0.28817482867693084 0.923432156468861
C -3.2574940246781847 -0.3590309647273435 0.1224217674111922
C 3.4214409988308896 1.269063202700852 -0.9284188390429994
H 2.4571212201932973 -0.820500271228883 2.3591792234218962
H -0.2630941600720692 -1.3349702958528527 -2.4163599106037252
H -3.3294071192193497 1.0032518138160984 1.6752279342421723
H -3.9959066891532937 0.5714898820882885 -1.5745255315529894
H -4.560727017774955 -1.9133086186173884 0.5347096521407547
H 0.47454541591258637 4.0291210963184945 0.9485891825436367
H -1.5865718296480122 2.2098138572317643 2.335369250302371
H -2.069908764857856 -4.273185459340743 1.270675578428663
H 3.8035241292671005 -1.0597767673376857 -3.757868414168009
